! Blank file in which we can put "overrides" for parameters
! z
#override USE_REGRIDDING = True
#override REGRIDDING_COORDINATE_MODE = "SIGMA_SHELF_ZSTAR" 
#override INTERPOLATION_SCHEME = "PPM_H4"
#override REMAPPING_SCHEME = "PPM_H4"


!TPY params
#override NK = 72
#override NKML = 4

! TIME STEP
#override DT = 10
#override DT_THERM = 10
#override DT_FORCING = 10

! MIXING
#override SMAGORINSKY_KH = False
#override BIHARMONIC = False
#override KH = 6.0  ! back. horiz. visc.
#override KHTR = 1.0    ! back. horiz. diff.
#override KD = 5.0E-5     ! back. diapycnal diff.
#override KV = 1.0E-3     ! back. diapycnal visc.

!WARM IC
#override ISOMIP_T_SUR = -1.9
#override ISOMIP_S_SUR = 33.8
#override ISOMIP_T_BOT = 1.0
#override ISOMIP_S_BOT = 34.7

! ice shelf
#override ICE_SHELF = False                !   [Boolean] default = False
#override SHELF_THERMO = TRUE
#override SHELF_THREE_EQN = True
#override SHELF_3EQ_GAMMA = False
#override UTIDE = 0.01
!SHELF_S_ROOT = True
!#override USE_HMIX_SFC_PROP = True
!#override HMIX_SFC_PROP = 10.

! FRAZIL  - making sure sea ice does not form
#override FRAZIL = False
#override PRESSURE_DEPENDENT_FRAZIL = False

! EPBL
#override ENERGETICS_SFC_PBL = True       !   [Boolean] default = False
                                ! If true, use an implied energetics planetary boundary
                                ! layer scheme to determine the diffusivity and viscosity
                                ! in the surface boundary layer.
#override EPBL_IS_ADDITIVE = True         !   [Boolean] default = True
                                ! If true, the diffusivity from ePBL is added to all
                                ! other diffusivities. Otherwise, the larger of kappa-
                                ! shear and ePBL diffusivities are used.
#override USE_MLD_ITERATION = True        !   [Boolean] default = False
                                ! A logical that determines whether or not to use the
                                ! MLD to set the EPBL length scale.
#override HTBL_SHELF_MIN = 10.0
#override BOUND_SALINITY = True


! SHEAR MIXING
#override USE_JACKSON_PARAM = True
#override RINO_CRIT = 0.25
!#override KD_KAPPA_SHEAR_0 = 1.0E-2

! SPONGE
#override SPONGE = TRUE
ISOMIP_SPONGE_FILE = "3D_LAYER_WARM_TPY_IC.nc"
#override ISOMIP_TNUDG = 0.1
#override ISOMIP_TNUDG = 0.1
#override ISOMIP_S_SUR_SPONGE = 33.8      !   [not defined] default = 35.0
                                ! Surface salinity in sponge layer.
#override ISOMIP_S_BOT_SPONGE = 34.7      !   [not defined] default = 35.0
                                ! Bottom salinity in sponge layer.
#override ISOMIP_T_SUR_SPONGE = -1.9      !   [not defined] default = -1.9
                                ! Surface temperature in sponge layer.
#override ISOMIP_T_BOT_SPONGE = 1.0
!#override ISOMIP_SPONGE_TEMP_OFFSET=0.1

! PASSIVE TRACERS
USE_ISOMIP_TRACER = False

! Simulation time
#override DAYMAX = 730

!#override FIT_SALINITY = False

!Passing Iceberg field to ocean
ICEBERGS_APPLY_RIGID_BOUNDARY=True !Different boundary condition is used under ice shelves
ALLOW_ICEBERG_FLUX_DIAGNOSTICS=True
