 &MOM_input_nml
        output_directory = './',
        input_filename = 'r'
        restart_input_dir = 'INPUT/',
        restart_output_dir = 'RESTART/',
        parameter_filename = 'MOM_input',
                             'MOM_override' /

 &SIS_input_nml
        output_directory = './',
        input_filename = 'r'
        restart_input_dir = 'INPUT/',
        restart_output_dir = 'RESTART/',
        parameter_filename = 'SIS_input',
                             'SIS_override' /

 &diag_manager_nml
         max_output_fields=1000
         max_input_fields=1000
         max_num_axis_sets=1000
	 flush_nc_files=.true.
         max_files=1000
         max_axes=2000
 /

 &coupler_nml
            months = 60,
            days   = 0,
            current_date = 1,1,1,0,0,0,
            hours = 0,
            minutes =0, 
            seconds = 0
            calendar = 'NOLEAP',
            dt_cpld  = 360.0,
            dt_atmos = 3600.0,
            do_atmos = .false.,
            do_land = .false.,
            do_ice = .true.,
            do_ocean = .true.,
            atmos_npes = 0,
            ocean_npes = 0,
            concurrent = .false.
            use_lag_fluxes=.false. /


 &icebergs_nml
    verbose=.false.,
    verbose_hrs=240,
    traj_sample_hrs=24000,
    ignore_ij_restart=.true.
    halo=2,
    save_short_traj=.true.
    debug=.false.,
    really_debug=.false.,
    use_slow_find=.true.,
    add_weight_to_ocean=.true.,
    passive_mode=.false.,
    Static_icebergs=.True.,
    ignore_missing_restart_bergs=.false.,
    generate_test_icebergs=.false.,
    speed_limit=0.,
    use_roundoff_fix=.true.,
    make_calving_reproduce=.false.,
    Runge_not_Verlet=.false.,
    iceberg_bonds_on=.false.,
    critical_interaction_damping_on=.true.,
    use_new_predictive_corrective=.true.,
    interactive_icebergs_on=.false.
    halo_debugging=.false.
    spring_coef=0.00001
    distribution=0.0, 0.99, 0.0, 0.00, 0.0, 0.0, 0.0, 0.0, 0.0, 0.0,
    mass_scaling=1, 1, 1, 1, 1, 1, 1, 1, 1, 1,
    initial_mass=8.8e7, 4.1e8, 3.3e9, 1.8e10, 3.8e10, 7.5e10, 1.2e11, 2.2e11, 3.9e11, 7.4e11,
    hexagonal_icebergs=.true.
    allow_bergs_to_roll=.true.
    set_melt_rates_to_zero=.false.
    use_roundoff_fix=.false.
    grid_is_latlon=.false.
    grid_is_regular=.true.
    initial_orientation=-0.
    rotate_icebergs_for_mass_spreading=.false.
    lat_ref=-75.0
    u_override=0.00
    v_override=0.00
    override_iceberg_velocities=.false.
    add_iceberg_thickness_to_SSH=.false.
    max_bonds=6
    Iceberg_melt_without_decay=.true.
    melt_icebergs_as_ice_shelf=.true.
    Use_three_equation_model=.true.
    find_melt_using_spread_mass=.true.
    use_mixed_layer_salinity_for_thermo=.true.
    pass_fields_to_ocean_model=.true.
    rho_bergs=918.0
    utide_icebergs=0.01
    ustar_icebergs_bg=0.000
    cdrag_icebergs =0.0025
    const_gamma=.false.
    Gamma_T_3EQ=0.22
    ignore_traj=.False.
    read_ocean_depth_from_file=.true.
    apply_thickness_cutoff_to_bergs_melt=.true.
    apply_thickness_cutoff_to_gridded_melt=.true.
    melt_cutoff=10.
    read_old_restarts=.false.
    internal_bergs_for_drag=.true.
    use_mixed_melting=.true.
 &data_override_nml
         /

 &fms_io_nml
         fms_netcdf_restart=.true.
         threading_read='multi'
 /

 &fms_nml
       clock_grain='MODULE'
       domains_stack_size = 2000000
       clock_flags='SYNC' /

 &ice_albedo_nml
      t_range = 10. /

 &ice_model_nml
           /

 &monin_obukhov_nml
            neutral = .true. /

 &ocean_albedo_nml
      ocean_albedo_option = 5 /

 &sat_vapor_pres_nml
      construct_table_wrt_liq = .true.,
      construct_table_wrt_liq_and_ice = .true. /

 &xgrid_nml
            make_exchange_reproduce = .false.
            interp_method = 'second_order' /

